120

C          2.47791        2.39682        0.00000
C          2.47786        2.38671        3.77570
C          2.38140        2.84610        2.43447
C          1.13196        3.46154        2.15272
C          0.70897        3.25802        0.81149
C          0.41020        1.89766        0.52974
C          2.38551        2.83687        6.21018
C          2.10891        3.21613        4.86895
C          0.71695        3.26421        4.58720
C          0.41485        2.90494        3.24597
C          0.70105        1.54188        2.96421
C          1.12215        1.33446        1.62298
C          2.37721        1.93834        1.34123
C          2.11644        3.20940        8.64465
C          1.70850        3.44163        7.30342
C          0.41958        2.91387        7.02167
C          0.29165        2.46223        5.68044
C          1.11235        1.33692        5.39869
C          1.58148        1.32072        4.05746
C          1.71814        3.43859       11.07913
C          1.25082        3.48281        9.73790
C          0.29231        2.47231        9.45614
C          0.36113        2.00797        8.11491
C          1.57153        1.31894        7.83316
C          2.00593        1.49681        6.49193
C          0.61101        1.62231       10.54939
C          1.99760        1.49110       10.26764
C          2.32064        1.83167        8.92640
C          2.47791        2.39682       11.36163
C          2.47786        2.38671       15.13734
C          2.38140        2.84610       13.79611
C          1.13196        3.46154       13.51435
C          0.70897        3.25802       12.17312
C          0.41020        1.89766       11.89137
C          2.38551        2.83687       17.57181
C          2.10891        3.21613       16.23058
C          0.71695        3.26421       15.94883
C          0.41485        2.90494       14.60760
C          0.70105        1.54188       14.32585
C          1.12215        1.33446       12.98462
C          2.37721        1.93834       12.70286
C          2.11644        3.20940       20.00629
C          1.70850        3.44163       18.66506
C          0.41958        2.91387       18.38330
C          0.29165        2.46223       17.04207
C          1.11235        1.33692       16.76032
C          1.58148        1.32072       15.41909
C          1.71814        3.43859       22.44076
C          1.25082        3.48281       21.09953
C          0.29231        2.47231       20.81778
C          0.36113        2.00797       19.47655
C          1.57153        1.31894       19.19479
C          2.00593        1.49681       17.85356
C          0.61101        1.62231       21.91102
C          1.99760        1.49110       21.62927
C          2.32064        1.83167       20.28804
C          2.47791        2.39682       22.72327
C          2.47786        2.38671       26.49897
C          2.38140        2.84610       25.15774
C          1.13196        3.46154       24.87599
C          0.70897        3.25802       23.53476
C          0.41020        1.89766       23.25300
C          2.38551        2.83687       28.93344
C          2.10891        3.21613       27.59221
C          0.71695        3.26421       27.31046
C          0.41485        2.90494       25.96923
C          0.70105        1.54188       25.68748
C          1.12215        1.33446       24.34625
C          2.37721        1.93834       24.06450
C          2.11644        3.20940       31.36792
C          1.70850        3.44163       30.02669
C          0.41958        2.91387       29.74494
C          0.29165        2.46223       28.40371
C          1.11235        1.33692       28.12195
C          1.58148        1.32072       26.78072
C          1.71814        3.43859       33.80239
C          1.25082        3.48281       32.46116
C          0.29231        2.47231       32.17941
C          0.36113        2.00797       30.83818
C          1.57153        1.31894       30.55643
C          2.00593        1.49681       29.21520
C          0.61101        1.62231       33.27265
C          1.99760        1.49110       32.99090
C          2.32064        1.83167       31.64967
C          2.47791        2.39682       34.08490
C          2.47786        2.38671       37.86060
C          2.38140        2.84610       36.51937
C          1.13196        3.46154       36.23762
C          0.70897        3.25802       34.89639
C          0.41020        1.89766       34.61464
C          2.38551        2.83687       40.29508
C          2.10891        3.21613       38.95385
C          0.71695        3.26421       38.67209
C          0.41485        2.90494       37.33086
C          0.70105        1.54188       37.04911
C          1.12215        1.33446       35.70788
C          2.37721        1.93834       35.42613
C          2.11644        3.20940       42.72955
C          1.70850        3.44163       41.38832
C          0.41958        2.91387       41.10657
C          0.29165        2.46223       39.76534
C          1.11235        1.33692       39.48359
C          1.58148        1.32072       38.14236
C          1.71814        3.43859       45.16403
C          1.25082        3.48281       43.82280
C          0.29231        2.47231       43.54104
C          0.36113        2.00797       42.19981
C          1.57153        1.31894       41.91806
C          2.00593        1.49681       40.57683
C          0.61101        1.62231       44.63429
C          1.99760        1.49110       44.35253
C          2.32064        1.83167       43.01130
H          2.47285        1.71949       -0.77860
H          2.55610        3.40711       -0.19546
H          0.62751        4.01670        0.11666
H         -0.14359        1.46088       -0.22364
H          2.41828        4.12341       45.48934
H          1.35738        2.72165       45.81277
H          0.02590        1.22849       45.38766
H          2.69510        1.18170       45.04736
